%chk=anthraquinone_td.chk
#p td(NStates=10) b3lyp/6-31+G(d) pop=full 

TD

0 1
 C                  3.69521477    0.70006079    0.00051976
 C                  2.49085448    1.39852063    0.00012679
 C                  1.27533533    0.70435963   -0.00008009
 C                  1.27533577   -0.70435897    0.00003851
 C                  2.49085499   -1.39852005    0.00033114
 C                  3.69521502   -0.70006046    0.00063251
 C                 -0.00000042    1.47857129   -0.00032319
 C                  0.00000054   -1.47857153   -0.00020930
 C                 -1.27533577   -0.70435892   -0.00007557
 C                 -1.27533563    0.70435946    0.00004787
 C                 -2.49085486    1.39852014    0.00041136
 H                 -2.46400787    2.48328201    0.00046891
 C                 -3.69521486    0.70006040    0.00067125
 C                 -3.69521482   -0.70006079    0.00046528
 C                 -2.49085457   -1.39852007    0.00006313
 H                  4.63632986    1.24306051    0.00070536
 H                  2.46400832    2.48328232    0.00000696
 H                  2.46400648   -2.48328180    0.00034381
 H                  4.63633104   -1.24305849    0.00095663
 H                 -4.63633050    1.24305919    0.00101596
 H                 -4.63633051   -1.24305960    0.00062566
 H                 -2.46400635   -2.48328191   -0.00008171
 O                  0.00000040   -2.70489967   -0.00120456
 O                 -0.00000043    2.70489823   -0.00126521

 1 2 2.0 6 1.5 16 1.0
 2 3 1.5 17 1.0
 3 4 1.5 7 1.5
 4 5 1.5 8 1.5
 5 6 2.0 18 1.0
 6 19 1.0
 7 10 1.5 24 2.0
 8 9 1.5 23 2.0
 9 10 1.5 15 1.5
 10 11 1.5
 11 12 1.0 13 2.0
 12
 13 14 1.5 20 1.0
 14 15 2.0 21 1.0
 15 22 1.0
 16
 17
 18
 19
 20
 21
 22
 23
 24

