%chk=C:\G09W\mine\substituent\pp\1\1_pp_opt.chk
#p opt b3lyp/6-31g(d,p) geom=connectivity scf=tight

Optimization

1 1
 C                  0.03552801    0.04797440    0.02546120
 C                 -0.02983600    0.32167124    1.35112505
 H                 -0.85384467   -0.20461820   -0.51316039
 H                  0.85953684    0.57426282    1.88974686
 C                  1.38983732    0.10049766   -0.70576215
 H                  2.27921032    0.35308822   -0.16714012
 N                  1.45223033   -0.16075899   -1.97116842
 N                 -1.32258570    0.27153479    2.04911111
 C                 -1.31436834    1.22838232    3.16503014
 H                 -1.15127660    2.21595341    2.78687086
 H                 -2.25534942    1.19188845    3.67308801
 H                 -0.53049765    0.97378597    3.84739913
 C                 -1.54664631   -1.08522174    2.56863834
 H                 -0.76277563   -1.33981810    3.25100733
 H                 -2.48762739   -1.12171562    3.07669622
 H                 -1.55262766   -1.78170260    1.75637074
 C                  0.23038132   -0.50777505   -2.71114467
 H                  0.08449011   -1.56737839   -2.68187832
 H                 -0.60927091   -0.01960104   -2.26217887
 H                  0.32655166   -0.18893563   -3.72799898
 C                  2.74498049   -0.11062549   -2.66915385
 H                  2.90807447    0.87694512   -3.04731340
 H                  3.52885031   -0.36522324   -1.98678438
 H                  2.73899810   -0.80710662   -3.48142120

 1 2 2.0 3 1.0 5 1.0
 2 4 1.0 8 1.0
 3
 4
 5 6 1.0 7 2.0
 6
 7 17 1.0 21 1.0
 8 9 1.0 13 1.0
 9 10 1.0 11 1.0 12 1.0
 10
 11
 12
 13 14 1.0 15 1.0 16 1.0
 14
 15
 16
 17 18 1.0 19 1.0 20 1.0
 18
 19
 20
 21 22 1.0 23 1.0 24 1.0
 22
 23
 24

