%chk=C:\Users\Hana\Downloads\1_pp_td.chk
#p td(NStates=10) b3lyp/6-31g(d,p) nosymm pop=full

td

1 1
 C                 -0.00001924    0.13566100    0.00004533
 C                  1.19922507   -0.57761158    0.00000288
 H                 -0.00005063    1.21754002    0.00012853
 H                  1.15806463   -1.66463381    0.00001343
 C                 -1.19925295   -0.57762288    0.00002494
 H                 -1.15807834   -1.66464439   -0.00001892
 N                 -2.42076985   -0.06743576    0.00005160
 N                  2.42076054   -0.06744249   -0.00004828
 C                  3.61118329   -0.92473390    0.00001306
 H                  3.31360246   -1.97357054    0.00023874
 H                  4.21413008   -0.72513714   -0.89045929
 H                  4.21425855   -0.72480746    0.89031963
 C                  2.63940694    1.38384123   -0.00002203
 H                  2.19893829    1.83718793    0.89306196
 H                  3.71038074    1.58086506   -0.00042744
 H                  2.19830121    1.83729766   -0.89273317
 C                 -2.63934051    1.38386064    0.00000067
 H                 -2.19881007    1.83722252    0.89304667
 H                 -2.19823823    1.83722718   -0.89276044
 H                 -3.71030672    1.58093554   -0.00034859
 C                 -3.61121174   -0.92471185   -0.00004721
 H                 -4.21398387   -0.72519287   -0.89065554
 H                 -3.31363505   -1.97354740    0.00034155
 H                 -4.21445306   -0.72469046    0.89012381

 1 2 2.0 3 1.0 5 1.0
 2 4 1.0 8 1.0
 3
 4
 5 6 1.0 7 2.0
 6
 7 17 1.0 21 1.0
 8 9 1.0 13 1.0
 9 10 1.0 11 1.0 12 1.0
 10
 11
 12
 13 14 1.0 15 1.0 16 1.0
 14
 15
 16
 17 18 1.0 19 1.0 20 1.0
 18
 19
 20
 21 22 1.0 23 1.0 24 1.0
 22
 23
 24
