%chk=1_hydroxy_anthraquinone_opt.chk
#p opt b3lyp/6-31g(d) geom=connectivity int=ultrafine

1-hydroxy_anthraquinone opt

0 1
 C                 -3.28481265   -3.19799690   -0.01291600
 C                 -1.92018965   -3.19799690   -0.01291600
 C                 -1.18729865   -1.96677590   -0.01291600
 C                 -1.91129565   -0.73502890   -0.01843400
 C                 -3.34353565   -0.77651990   -0.01973400
 C                 -4.00731865   -1.96881290   -0.01636300
 C                  0.21160235   -1.94388690   -0.00802000
 C                 -1.21091865    0.47613810   -0.02015500
 C                  0.18802235    0.49902210   -0.01453000
 C                  0.91199135   -0.73268090   -0.00711000
 C                  2.34417335   -0.69105690    0.00000000
 H                  2.89004335   -1.64658390    0.00660100
 C                  3.00791035    0.50129810    0.00104200
 C                  2.28542735    1.73041310   -0.00713000
 C                  0.92078435    1.73026810   -0.01449700
 H                 -3.85068465   -4.14127490   -0.01051200
 H                 -1.35086365   -4.13973090   -0.00981000
 H                 -3.88934865    0.17902610   -0.02433800
 H                 -5.10671665   -2.00497790   -0.01779400
 H                  4.10731635    0.53720210    0.00720200
 H                  2.85150735    2.67359010   -0.00603500
 O                 -1.93586984    1.70874308   -0.02569859
 O                  0.93598728   -3.17682445   -0.00241017
 O                  0.18070290    2.95383380   -0.02264703
 H                  0.78916217    3.69638152   -0.02308320

 1 2 2.0 6 1.5 16 1.0
 2 3 1.5 17 1.0
 3 4 1.5 7 1.5
 4 5 1.5 8 1.5
 5 6 2.0 18 1.0
 6 19 1.0
 7 10 1.5 23 2.0
 8 9 1.5 22 2.0
 9 10 1.5 15 1.5
 10 11 1.5
 11 12 1.0 13 2.0
 12
 13 14 1.5 20 1.0
 14 15 2.0 21 1.0
 15 24 1.0
 16
 17
 18
 19
 20
 21
 22
 23
 24 25 1.0
 25

