%chk=3_CH3_td.chk
#p td=(nstates=10) b3lyp/6-31g(d) nosymm geom=connectivity pop=full

opt

0 1
 C                  3.05401000   -0.43202300    0.00000000
 H                  3.01094100   -1.52258100    0.00000300
 C                  1.89764100    0.25671300   -0.00000200
 H                  1.93402300    1.34774600   -0.00000200
 C                  0.58098200   -0.34683500   -0.00000600
 H                  0.54199200   -1.43737700   -0.00000200
 C                 -0.58098200    0.34683500   -0.00000700
 H                 -0.54199200    1.43737700   -0.00000600
 C                 -1.89764100   -0.25671300   -0.00000400
 H                 -1.93402300   -1.34774600   -0.00000400
 C                 -3.05401000    0.43202300    0.00000100
 H                 -3.01094100    1.52258100    0.00000500
 C                  4.42261700    0.17888800    0.00000500
 H                  5.00129500   -0.13582000   -0.87990200
 H                  4.37566000    1.27318500    0.00000200
 H                  5.00128400   -0.13581300    0.87992300
 C                 -4.42261700   -0.17888800    0.00000600
 H                 -5.00128400    0.13581200    0.87992400
 H                 -5.00129500    0.13582100   -0.87990100
 H                 -4.37566000   -1.27318500    0.00000100

 1 2 1.0 3 2.0 13 1.0
 2
 3 4 1.0 5 1.0
 4
 5 6 1.0 7 2.0
 6
 7 8 1.0 9 1.0
 8
 9 10 1.0 11 2.0
 10
 11 12 1.0 17 1.0
 12
 13 14 1.0 15 1.0 16 1.0
 14
 15
 16
 17 18 1.0 19 1.0 20 1.0
 18
 19
 20

