%chk=3_pp_td.chk
#p td(NStates=10) b3lyp/6-31g(d,p) nosymm pop=full

td

1 1
 C                 -1.21999989   -0.33499842    0.00013461
 H                 -1.18639148   -1.42554245    0.00030092
 C                  0.00001078    0.33782648   -0.00011438
 H                  0.00001527    1.42588210   -0.00020266
 C                  1.22002893   -0.33499934   -0.00023434
 H                  1.18642348   -1.42554460   -0.00012243
 C                  2.48133923    0.26763064   -0.00031840
 H                  2.54718548    1.35065962   -0.00015822
 C                 -2.48131602    0.26764040    0.00018474
 H                 -2.54714238    1.35066827   -0.00021004
 C                 -3.63623292   -0.50761979    0.00021363
 H                 -3.53438458   -1.59036238   -0.00076382
 N                  4.89226636   -0.06466775   -0.00098153
 C                  3.63623942   -0.50763272   -0.00021097
 H                  3.53439269   -1.59037520    0.00057763
 N                 -4.89228659   -0.06466534    0.00110917
 C                 -6.02893820   -0.98606265   -0.00247606
 H                 -6.64360927   -0.82490434   -0.89366186
 H                 -5.67081691   -2.01600574   -0.00263786
 H                 -6.64771204   -0.82652650    0.88611318
 C                 -5.18909425    1.36967776    0.00224702
 H                 -4.76619927    1.84948810    0.89041522
 H                 -4.77934175    1.84876513   -0.89256813
 H                 -6.26941063    1.50882266    0.01029484
 C                  5.18904964    1.36968526   -0.00212541
 H                  4.76740576    1.84926250   -0.89101405
 H                  4.77801024    1.84894493    0.89200018
 H                  6.26937671    1.50883996   -0.00866611
 C                  6.02894503   -0.98604898    0.00254078
 H                  6.64734892   -0.82691571   -0.88638395
 H                  6.64396292   -0.82442500    0.89339496
 H                  5.67083792   -2.01599165    0.00335140

 1 2 1.0 3 2.0 9 1.0
 2
 3 4 1.0 5 1.0
 4
 5 6 1.0 7 2.0
 6
 7 8 1.0 14 1.0
 8
 9 10 1.0 11 2.0
 10
 11 12 1.0 16 1.0
 12
 13 14 2.0 25 1.0 29 1.0
 14 15 1.0
 15
 16 17 1.0 21 1.0
 17 18 1.0 19 1.0 20 1.0
 18
 19
 20
 21 22 1.0 23 1.0 24 1.0
 22
 23
 24
 25 26 1.0 27 1.0 28 1.0
 26
 27
 28
 29 30 1.0 31 1.0 32 1.0
 30
 31
 32

