%chk=4_pp_td.chk
#p td(NStates=10) b3lyp/6-31g(d,p) nosymm pop=full

Title Card Required

1 1
 C                 -2.44309538   -0.29806284   -0.00007455
 H                 -2.38630382   -1.38757976   -0.00022666
 C                 -1.24032890    0.40071777   -0.00002185
 H                 -1.26577498    1.48873719    0.00012641
 C                 -0.00002594   -0.23995778   -0.00015219
 H                 -0.00006643   -1.33092644   -0.00029711
 C                 -3.71935818    0.27875698    0.00004820
 H                 -3.80564757    1.36048079    0.00020374
 C                 -4.85788563   -0.51643946   -0.00003163
 H                 -4.73679238   -1.59713765   -0.00019873
 N                 -6.12461170   -0.09629647    0.00007719
 C                  1.24030587    0.40066026   -0.00010354
 H                  1.26580732    1.48868431    0.00002695
 C                  2.44305254   -0.29816878   -0.00024499
 H                  2.38620193   -1.38768517   -0.00043835
 C                  3.71935597    0.27861172   -0.00021639
 H                  3.80568812    1.36034524    0.00002102
 N                  6.12462863   -0.09627775   -0.00020892
 C                  4.85790145   -0.51653247   -0.00032666
 H                  4.73694500   -1.59725496   -0.00021710
 C                  6.44582081    1.33157793   -0.00008674
 H                  6.03661132    1.81941593   -0.89067047
 H                  6.03867914    1.81892596    0.89173681
 H                  7.52845486    1.45277614   -0.00134504
 C                  7.24283731   -1.03822339    0.00071146
 H                  7.86428847   -0.89140320   -0.88853341
 H                  7.86276121   -0.89158878    0.89106588
 H                  6.86481965   -2.06114951    0.00028418
 C                 -7.24277482   -1.03833993   -0.00005278
 H                 -7.86348221   -0.89149681   -0.88981419
 H                 -6.86464529   -2.06121610   -0.00022770
 H                 -7.86344660   -0.89178707    0.88978118
 C                 -6.44585944    1.33154834    0.00030821
 H                 -6.03763692    1.81901164    0.89155818
 H                 -6.03775313    1.81927675   -0.89085035
 H                 -7.52850021    1.45270097    0.00039748

 1 2 1.0 3 2.0 7 1.5
 2
 3 4 1.0 5 1.5
 4
 5 6 1.0 12 2.0
 6
 7 8 1.0 9 2.0
 8
 9 10 1.0 11 1.5
 10
 11 29 1.0 33 1.0
 12 13 1.0 14 1.0
 13
 14 15 1.0 16 2.0
 15
 16 17 1.0 19 1.0
 17
 18 19 2.0 21 1.0 25 1.0
 19 20 1.0
 20
 21 22 1.0 23 1.0 24 1.0
 22
 23
 24
 25 26 1.0 27 1.0 28 1.0
 26
 27
 28
 29 30 1.0 31 1.0 32 1.0
 30
 31
 32
 33 34 1.0 35 1.0 36 1.0
 34
 35
 36

