%chk=1_amino_anthraquinone_td.chk
#p td(NStates=10) b3lyp/6-31+g(d) nosymm pop=full

1_amino_anthraquinone td

0 1
 C                 -3.96468682    0.32612328   -0.00032956
 C                 -2.87675830    1.19396566   -0.00207097
 C                 -1.57255298    0.68505004   -0.00136925
 C                 -1.36096227   -0.70504746    0.00102796
 C                 -2.46120450   -1.57117241    0.00292573
 C                 -3.75553445   -1.05832580    0.00226186
 C                 -0.42216452    1.62766162   -0.00213764
 C                  0.01535915   -1.28449723    0.00090905
 C                  1.15873980   -0.36392821   -0.00301962
 C                  0.95406733    1.04322310   -0.00108954
 C                  2.02397331    1.92861271    0.00296036
 H                  1.81998696    2.99296711    0.00423913
 C                  3.33298529    1.42838997    0.00628202
 C                  3.56868051    0.06712435    0.00335493
 C                  2.49868497   -0.86366277   -0.00336067
 H                 -4.97602473    0.72338417   -0.00090405
 H                 -3.00823001    2.27100337   -0.00382289
 H                 -2.27580508   -2.63984436    0.00471916
 H                 -4.60526331   -1.73565264    0.00366621
 H                  4.17479964    2.11574739    0.01089430
 H                  4.58749596   -0.31368978    0.00435697
 O                  0.14674496   -2.51940998    0.00522314
 O                 -0.59880874    2.84207077   -0.00303796
 N                  2.76641369   -2.19378188   -0.01681704
 H                  3.71840599   -2.52079598    0.02926459
 H                  1.98448971   -2.83903366    0.00975658

 1 2 2.0 6 1.5 16 1.0
 2 3 1.5 17 1.0
 3 4 1.5 7 1.5
 4 5 1.5 8 1.5
 5 6 2.0 18 1.0
 6 19 1.0
 7 10 1.5 23 2.0
 8 9 1.5 22 2.0
 9 10 1.5 15 1.5
 10 11 1.5
 11 12 1.0 13 2.0
 12
 13 14 1.5 20 1.0
 14 15 2.0 21 1.0
 15 24 1.0
 16
 17
 18
 19
 20
 21
 22
 23
 24 25 1.0 26 1.0
 25
 26

