%chk=5_pp_opt.chk
#p opt b3lyp/6-31g(d,p) geom=connectivity scf=tight

opt

1 1
 C                 -1.81940277    0.22385823   -0.36362256
 H                 -1.80930042    1.29209497   -0.31753139
 C                 -0.65446225   -0.46795933   -0.39199202
 H                 -0.66918532   -1.53819294   -0.45818287
 C                  0.56951821    0.21090117   -0.32801226
 H                  0.59219126    1.27963358   -0.28637263
 C                 -3.04284997   -0.45644837   -0.39132745
 H                 -3.06102996   -1.52216281   -0.44087209
 C                 -4.20478962    0.24343875   -0.35858416
 H                 -4.19204556    1.31441274   -0.30024659
 N                 -5.48373345   -0.47239555   -0.40846462
 C                  1.76146332   -0.52460846   -0.31337938
 H                  1.72562680   -1.59441256   -0.36949062
 C                  3.12653343    0.18925153   -0.21454457
 H                  3.17795035    1.25741889   -0.17930551
 C                  4.26919024   -0.54500846   -0.17105952
 H                  4.21925451   -1.61368882   -0.20264503
 C                  5.63445872    0.16501625   -0.07725672
 H                  5.68040105    1.23404710   -0.06346023
 C                  6.77607292   -0.55762395   -0.01695098
 H                  6.73851026   -1.62861506   -0.05348893
 N                  9.21662343   -0.52705507    0.18978583
 C                  8.13173054    0.16234675    0.10346291
 H                  8.17639455    1.23033017    0.12248327
 C                 -5.32356835   -1.79451942    0.20525969
 H                 -4.57810663   -2.34311442   -0.33471523
 H                 -5.01933763   -1.67733687    1.22556239
 H                 -6.25448321   -2.32112009    0.16950172
 C                 -6.51014850    0.28558625    0.33089357
 H                 -6.20812893    0.39775233    1.35211824
 H                 -6.63035728    1.25421502   -0.11377263
 H                 -7.43698913   -0.24764591    0.28988687
 C                 10.52925729    0.12628954    0.29619776
 H                 10.39990192    1.19000002    0.39716150
 H                 11.03410168   -0.24212861    1.17408260
 H                 11.10460545   -0.08682931   -0.57939834
 C                  9.12835211   -1.99461191    0.19210597
 H                  9.12294277   -2.35404177    1.20637968
 H                  8.20851253   -2.28722684   -0.29869135
 H                  9.97394824   -2.40951219   -0.32830569

 1 2 1.0 3 2.0 7 1.5
 2
 3 4 1.0 5 1.5
 4
 5 6 1.0 12 1.5
 6
 7 8 1.0 9 2.0
 8
 9 10 1.0 11 1.0
 10
 11 25 1.0 29 1.0
 12 13 1.0 14 1.0
 13
 14 15 1.0 16 2.0
 15
 16 17 1.0 18 1.0
 17
 18 19 1.0 20 2.0
 19
 20 21 1.0 23 1.0
 21
 22 23 2.0 33 1.0 37 1.0
 23 24 1.0
 24
 25 26 1.0 27 1.0 28 1.0
 26
 27
 28
 29 30 1.0 31 1.0 32 1.0
 30
 31
 32
 33 34 1.0 35 1.0 36 1.0
 34
 35
 36
 37 38 1.0 39 1.0 40 1.0
 38
 39
 40

