%chk=4_CH3_opt.chk
#p opt b3lyp/6-31g(d) geom=connectivity

Title Card Required

0 1
 C                 -1.34441080   -1.64652566    0.00000000
 H                 -2.41441080   -1.64652566    0.00000000
 C                 -0.66913649   -0.47154836    0.00000000
 H                  0.40086351   -0.47154836    0.00000000
 C                 -1.43649366    0.86365312   -0.00000000
 H                 -2.50649366    0.86365312   -0.00000000
 C                 -0.76121935    2.03863041   -0.00000000
 H                  0.27646244    2.05720410   -0.26032963
 C                 -1.48222211    3.34719142    0.37339404
 H                 -2.51990390    3.32861774    0.63372367
 C                 -0.80694780    4.52216872    0.37339404
 H                  0.26305220    4.52216872    0.37339404
 C                 -0.57705363   -2.98172713    0.00000000
 H                  0.49294637   -2.98172713    0.00000000
 C                 -1.25232794   -4.15670443    0.00000000
 H                 -2.32230905   -4.16306172   -0.00000000
 C                 -1.57430497    5.85737019    0.37339404
 H                 -2.17321612    5.92454163    1.25752832
 H                 -0.87757341    6.66916388    0.35203647
 H                 -2.20528891    5.90610958   -0.48938272
 C                 -0.47705134   -5.48732316    0.00000000
 H                 -1.16914232   -6.30335564   -0.00102988
 H                  0.13909784   -5.54111778   -0.87313591
 H                  0.13755645   -5.54201645    0.87416583

 1 2 1.0 3 2.0 13 1.0
 2
 3 4 1.0 5 1.0
 4
 5 6 1.0 7 2.0
 6
 7 8 1.0 9 1.0
 8
 9 10 1.0 11 2.0
 10
 11 12 1.0 17 1.0
 12
 13 14 1.0 15 2.0
 14
 15 16 1.0 21 1.0
 16
 17 18 1.0 19 1.0 20 1.0
 18
 19
 20
 21 22 1.0 23 1.0 24 1.0
 22
 23
 24

