%chk=mini_6_pp_td.chk
#p td b3lyp/6-31g(d) geom=connectivity pop=full

Title Card Required

0 1
 C                 -1.83112641   -0.35099058   -0.00041463
 H                 -1.81654739   -1.44197973   -0.00030442
 C                 -0.64375574    0.31596227   -0.00052889
 H                 -0.65860385    1.40697396   -0.00064168
 C                  0.64375574   -0.31596227   -0.00052881
 H                  0.65860385   -1.40697396   -0.00064123
 C                  1.83112641    0.35099058   -0.00041502
 H                  1.81654739    1.44197973   -0.00030531
 C                  3.12034365   -0.28175352   -0.00043818
 H                  3.13390664   -1.37285091   -0.00083467
 C                  4.30495177    0.38352797    0.00004581
 H                  4.29304972    1.47452457    0.00048006
 C                  5.60141421   -0.25377871    0.00006028
 H                  5.60974012   -1.34529969   -0.00036765
 C                  6.77697363    0.40518394    0.00055167
 H                  6.76212344    1.49639479    0.00097805
 C                 -3.12034365    0.28175352   -0.00043770
 H                 -3.13390664    1.37285091   -0.00083399
 C                 -4.30495177   -0.38352797    0.00004598
 H                 -4.29304972   -1.47452457    0.00047991
 C                 -5.60141421    0.25377871    0.00006035
 H                 -5.60974012    1.34529969   -0.00036729
 C                 -6.77697363   -0.40518394    0.00055146
 H                 -6.76212344   -1.49639479    0.00097762
 C                  8.12831257   -0.24155067    0.00055685
 H                  8.71518643    0.05873655   -0.87901418
 H                  8.71486163    0.05808258    0.88056899
 H                  8.05287851   -1.33417725    0.00013818
 C                 -8.12831257    0.24155067    0.00055668
 H                 -8.71518633   -0.05873634   -0.87901448
 H                 -8.71486168   -0.05808279    0.88056869
 H                 -8.05287851    1.33417725    0.00013829

 1 2 1.0 3 2.0 17 1.0
 2
 3 4 1.0 5 1.0
 4
 5 6 1.0 7 2.0
 6
 7 8 1.0 9 1.0
 8
 9 10 1.0 11 2.0
 10
 11 12 1.0 13 1.0
 12
 13 14 1.0 15 2.0
 14
 15 16 1.0 25 1.0
 16
 17 18 1.0 19 2.0
 18
 19 20 1.0 21 1.0
 20
 21 22 1.0 23 2.0
 22
 23 24 1.0 29 1.0
 24
 25 26 1.0 27 1.0 28 1.0
 26
 27
 28
 29 30 1.0 31 1.0 32 1.0
 30
 31
 32

