%chk=1_methylamino_anthraquinone_td.chk
#p td(NStates=10) b3lyp/6-31+g(d) nosymm pop=full

Title Card Required

0 1
 C                 -4.13717005   -0.09407892    0.18117048
 C                 -3.18838294    0.92198875    0.23702329
 C                 -1.83014732    0.62154644    0.07535478
 C                 -1.42330760   -0.70362613   -0.14934094
 C                 -2.38588735   -1.71794384   -0.21939979
 C                 -3.73417999   -1.41556147   -0.04880966
 C                 -0.82700977    1.71542514    0.10870782
 C                  0.01856633   -1.06469370   -0.33175279
 C                  1.03513977   -0.02006649   -0.07536176
 C                  0.61721780    1.34151310   -0.01641135
 C                  1.53053910    2.38728959   -0.07132403
 H                  1.15929493    3.40453877   -0.02746813
 C                  2.89354743    2.10262784   -0.19659173
 C                  3.33323484    0.79264036   -0.18605792
 C                  2.43608584   -0.29981733   -0.06976216
 H                 -5.19069521    0.13861593    0.30997499
 H                 -3.47123853    1.95686700    0.39951524
 H                 -2.05251429   -2.73269703   -0.40878572
 H                 -4.47604996   -2.20823217   -0.09660080
 H                  3.61638320    2.91070093   -0.26966796
 H                  4.40036355    0.58174841   -0.22685910
 O                  0.30604072   -2.19187359   -0.73587214
 O                 -1.16967604    2.88663211    0.24037817
 N                  2.99500931   -1.55112182    0.05201117
 H                  4.00432163   -1.52672043    0.00770835
 C                  2.47768030   -2.64346696    0.86869756
 H                  3.33006097   -3.17966602    1.29720630
 H                  1.86514939   -2.25682955    1.69281641
 H                  1.86338339   -3.33119955    0.28518315

 1 2 2.0 6 1.5 16 1.0
 2 3 1.5 17 1.0
 3 4 1.5 7 1.5
 4 5 1.5 8 1.5
 5 6 2.0 18 1.0
 6 19 1.0
 7 10 1.5 23 2.0
 8 9 1.5 22 2.0
 9 10 1.5 15 1.5
 10 11 1.5
 11 12 1.0 13 2.0
 12
 13 14 1.5 20 1.0
 14 15 2.0 21 1.0
 15 24 1.0
 16
 17
 18
 19
 20
 21
 22
 23
 24 25 1.0 26 1.0
 25
 26 27 1.0 28 1.0 29 1.0
 27
 28
 29

