%chk=5_CH3_opt.chk
#p opt b3lyp/6-31g(d) geom=connectivity

Title Card Required

0 1
 C                 -2.83267331   -1.83765256    0.13808420
 H                 -3.88709626   -1.84173131    0.31995120
 C                 -2.16181135   -0.66227738    0.06734191
 H                 -1.10738894   -0.65819851   -0.11452823
 C                 -2.91704834    0.66750574    0.24870876
 H                 -3.97147024    0.66342676    0.43058184
 C                 -2.24618719    1.84288110    0.17796177
 H                 -1.19176591    1.84696022   -0.00391489
 C                 -3.00142337    3.17266404    0.35933333
 H                 -4.05584410    3.16858479    0.54121318
 C                 -2.33056305    4.34803958    0.28858154
 H                 -1.27614293    4.35211896    0.10669816
 C                 -3.08579846    5.67782235    0.46995751
 H                 -4.14021821    5.67374289    0.65184308
 C                 -2.41493891    6.85319806    0.39920130
 H                 -1.36051978    6.85727767    0.21731214
 C                 -2.07743562   -3.16743584   -0.04327860
 H                 -1.02301207   -3.16335722   -0.22514212
 C                 -2.74829824   -4.34281086    0.02745990
 H                 -3.80272173   -4.34688950    0.20932373
 C                 -1.99306063   -5.67259413   -0.15390339
 H                 -2.65064254   -6.40092356   -0.58054408
 H                 -1.15713498   -5.52213353   -0.80466441
 H                 -1.64666138   -6.01866560    0.79748617
 C                 -3.17017369    8.18298070    0.58058089
 H                 -2.51258239    8.91131148    1.00720479
 H                 -3.51659619    8.52905047   -0.37080082
 H                 -4.00608355    8.03252003    1.23136219

 1 2 1.0 3 2.0 17 1.0
 2
 3 4 1.0 5 1.0
 4
 5 6 1.0 7 2.0
 6
 7 8 1.0 9 1.0
 8
 9 10 1.0 11 2.0
 10
 11 12 1.0 13 1.0
 12
 13 14 1.0 15 2.0
 14
 15 16 1.0 25 1.0
 16
 17 18 1.0 19 2.0
 18
 19 20 1.0 21 1.0
 20
 21 22 1.0 23 1.0 24 1.0
 22
 23
 24
 25 26 1.0 27 1.0 28 1.0
 26
 27
 28

